// -*- C++ -*-
// File generated by PyFoam - sorry for the ugliness

FoamFile
{
 version 2.0;
 format ascii;
 class polyBoundaryMesh;
 location "constant/polyMesh";
 object boundary;
}

(
  frontAndBack

  {
    type empty;
    physicalType empty;
    nFaces 10608;
    startFace 7685;

  }
  topAndBottom

  {
    type patch;
    physicalType patch;
    nFaces 16;
    startFace 18293;

  }
  inlet

  {
    type patch;
    physicalType inlet;
    nFaces 7;
    startFace 18309;

  }
  outlet

  {
    type patch;
    physicalType outlet;
    nFaces 7;
    startFace 18316;

  }
  walls

  {
    type wall;
    physicalType wall;
    nFaces 512;
    startFace 18323;

  }
)


// ************************************************************************* //