// -*- C++ -*-
// File generated by PyFoam - sorry for the ugliness

FoamFile
{
 version 2.0;
 format ascii;
 class polyBoundaryMesh;
 location "constant/polyMesh";
 object boundary;
}

(
  frontAndBack

  {
    type empty;
    physicalType patch;
    nFaces 10562;
    startFace 7649;

  }
  topAndBottom

  {
    type patch;
    physicalType patch;
    nFaces 16;
    startFace 18211;

  }
  inlet

  {
    type patch;
    physicalType patch;
    nFaces 7;
    startFace 18227;

  }
  outlet

  {
    type patch;
    physicalType patch;
    nFaces 7;
    startFace 18234;

  }
  walls

  {
    type wall;
    physicalType patch;
    nFaces 515;
    startFace 18241;

  }
)


// ************************************************************************* //